Circuit: * D:\idk\Downloads\uni\EE2005 Electrical circuits\lab4\Draft3.asc

.OP point found by inspection.

Date: Wed Oct 21 10:03:35 2020
Total elapsed time: 62.781 seconds.

tnom = 27
temp = 27
method = modified trap
totiter = 10556438
traniter = 10556438
tranpoints = 5278220
accept = 4933606
rejected = 344614
matrix size = 3
fillins = 0
solver = Normal
Matrix Compiler1: off  [0.0]/0.0/0.0
Matrix Compiler2: 175 bytes object code size  0.0/0.1/[0.0]

